Reffs/Redes/Rede_03/_trafo3 - Copia/ckt03_EXP_CURRENTS.CSV
Element, I1_1, Ang1_1, I1_2, Ang1_2, I1_3, Ang1_3, I1_4, Ang1_4, Iresid1, AngResid1, I2_1, Ang2_1, I2_2, Ang2_2, I2_3, Ang2_3, I2_4, Ang2_4, Iresid2, AngResid2
Vsource.SOURCE,   0.293662,   140.51,   0.276354,    34.21,   0.342141,   -90.32,          0,     0.00, 1.56526E-012,   -60.64,   0.293662,   -39.49,   0.276354,  -145.79,   0.342141,    89.68,          0,     0.00, 1.56526E-012,   119.36
Line._ABCN_L01-SEC,    10.3128,   -61.94,    7.73898,   178.13,     8.0163,    58.10,    2.41738,   127.99,   0.192373,  -134.88,    10.3128,   118.06,    7.73898,    -1.87,     8.0163,  -121.90,    2.41738,   -52.01,   0.192374,    45.12
Line._CN_L02-RAMAL, 7.5738E-006,   179.85, 6.5615E-006,    -0.17,          0,     0.00,          0,     0.00, 1.0123E-006,   179.96, 1.49276E-012,   -30.78, 1.81759E-012,   175.46,          0,     0.00,          0,     0.00, 8.15201E-013,  -130.49
Line._ABCN_L03-SEC,    9.06396,   -62.00,    4.39267,   178.17,    9.58336,    58.20,    4.77287,  -178.31,   0.202234,    44.45,    9.06398,   118.00,    4.39268,    -1.83,    9.58337,  -121.80,    4.77288,     1.69,   0.202233,  -135.55
Line._ABCN_L04-SEC, 1.07481E-005,    67.68, 1.2354E-005,   -61.68, 1.16585E-005,   174.32, 2.035E-006,     8.17, 6.22331E-007,    55.14, 1.92464E-012,   -82.83, 9.34113E-013,    21.36, 4.91943E-013,   165.00, 2.0784E-012,   103.54, 5.97249E-013,    75.62
Line._ABCN_L05-SEC,    2.59262,   -61.94,    1.28271,   178.11,   0.304998,    58.09,    1.89936,    95.71,   0.132262,  -133.05,    2.59263,   118.06,    1.28272,    -1.90,   0.305002,  -121.91,    1.89936,   -84.29,   0.132263,    46.95
Line._ABCN_L06-SEC,     7.7202,   -61.94,    6.45627,   178.13,    7.71131,    58.10,      1.299,   179.33,  0.0603271,  -138.89,    7.72021,   118.06,    6.45628,    -1.87,    7.71132,  -121.90,      1.299,    -0.67,  0.0603278,    41.11
Line._AN_L07-RAMAL,    1.11863,   -61.95,    1.11101,   119.33,          0,     0.00,          0,     0.00,  0.0259429,  -134.23,    1.11864,   118.05,    1.11102,   -60.67,          0,     0.00,          0,     0.00,  0.0259436,    45.77
Line._BCN_L08-RAMAL,   0.299964,   178.11,   0.300427,    58.08,   0.306345,   -66.63,          0,     0.00,  0.0253929,  -140.01,   0.299974,    -1.89,    0.30043,  -121.92,   0.306348,   113.37,          0,     0.00,  0.0253923,    39.99
Line._ABCN_L09-SEC,    1.47399,   -61.94,   0.982755,   178.10,  0.0045756,    58.51,    1.22502,    79.01,     0.0812,  -130.50,    1.47401,   118.06,   0.982768,    -1.90, 0.00458635,  -121.77,    1.22501,  -100.99,  0.0812013,    49.50
Line._ABCN_L10-SEC,    1.40831,   -61.95,   0.163798,   178.13,    1.40663,    58.11,    1.26958,   179.18,  0.0374332,  -137.98,    1.40831,   118.05,   0.163807,    -1.88,    1.40664,  -121.89,    1.26958,    -0.82,   0.037434,    42.02
Line._ABCN_L11-RAMAL,    6.31191,   -61.93,    6.29248,   178.13,    6.30468,    58.10,  0.0296073,  -174.30,   0.022907,  -140.37,    6.31191,   118.07,    6.29249,    -1.87,    6.30469,  -121.90,  0.0296079,     5.70,   0.022907,    39.63
Line._AN_L12-RAMAL,    1.47401,   -61.94,    1.46102,   118.99,          0,     0.00,          0,     0.00,  0.0270262,  -122.76,    1.47401,   118.06,    1.46102,   -61.01,          0,     0.00,          0,     0.00,  0.0270273,    57.25
Line._BCN_L13-RAMAL,   0.982768,   178.10, 0.00458635,    58.23,   0.944715,    -4.58,          0,     0.00,  0.0545437,  -134.33,   0.982777,    -1.90, 0.00458932,  -121.92,   0.944713,   175.42,          0,     0.00,  0.0545429,    45.67
Line._ABCN_L14-RAMAL,   0.164373,   -61.95,   0.163807,   178.12,   0.164197,    58.10,   0.020037,  -142.23,  0.0199555,  -140.96,   0.164379,   118.05,   0.163813,    -1.88,   0.164199,  -121.90,  0.0200369,    37.76,  0.0199555,    39.05
Line._ACN_L15-RAMAL,    1.24394,   -61.95,    1.24244,    58.11,    1.25398,   178.61,          0,     0.00,   0.017536,  -134.59,    1.24395,   118.05,    1.24245,  -121.89,    1.25399,    -1.39,          0,     0.00,  0.0175362,    45.41
Line._BN_L16-RAMAL,   0.370657,   178.12,   0.356606,    -3.17,          0,     0.00,          0,     0.00,  0.0162729,  -152.22,    0.37066,    -1.88,   0.356609,   176.83,          0,     0.00,          0,     0.00,  0.0162729,    27.78
Line._ABCN_L17-SEC,    9.06398,   -62.00,    4.01974,   178.17,    9.58107,    58.20,    5.11548,  -178.75,    0.23304,    42.27,    9.06398,   118.00,    4.01975,    -1.83,    9.58108,  -121.80,    5.11548,     1.25,   0.233039,  -137.73
Line._BCN_L18-RAMAL, 0.00227912,   178.37, 0.00229517,    58.47,  0.0158223,  -142.81,          0,     0.00,  0.0156236,  -151.13, 0.00229066,    -1.88, 0.00229872,  -121.90,  0.0158272,    37.20,          0,     0.00,  0.0156228,    28.87
Line._ABCN_L19-SEC,    2.30784,   -62.08,    3.11697,   178.19,    7.12966,    58.20,    4.22057,  -113.06,   0.245366,    73.64,    2.30786,   117.92,    3.11698,    -1.81,    7.12966,  -121.80,    4.22057,    66.94,   0.245365,  -106.36
Line._ABCN_L20-SEC,    5.28138,   -61.97,   0.902786,   178.11,    2.45143,    58.19,     3.7116,   138.18,    0.12909,   -34.97,    5.28139,   118.03,    0.90279,    -1.89,    2.45143,  -121.81,     3.7116,   -41.82,    0.12909,   145.03
Line._ABCN_L21-SEC,    1.47476,   -61.98, 9.07196E-006,   -61.66, 8.5484E-006,   174.33,     1.4718,   118.19, 0.00529352,  -117.80,    1.47477,   118.02, 1.36127E-012,    24.28, 2.19143E-012,   131.85,     1.4718,   -61.81, 0.00529397,    62.20
Line._BCN_L22-RAMAL,    1.46692,   178.19,    2.07487,    58.15,    1.80199,   -78.35,          0,     0.00,  0.0445038,    99.55,    1.46693,    -1.81,    2.07488,  -121.85,    1.80199,   101.65,          0,     0.00,  0.0445043,   -80.45
Line._ABCN_L23-SEC,    2.30786,   -62.08, 2.53216E-005,   -61.50,    5.05479,    58.22,    4.21232,  -150.33,    0.19169,    64.51,    2.30787,   117.92, 5.06396E-013,   -92.74,     5.0548,  -121.78,    4.21233,    29.67,   0.191689,  -115.49
Line._BN_L24-RAMAL,    1.65007,   178.19,    1.64362,    -1.17,          0,     0.00,          0,     0.00,  0.0194392,   107.88,    1.65007,    -1.81,    1.64362,   178.83,          0,     0.00,          0,     0.00,    0.01944,   -72.12
Line._ABN_L25-RAMAL,  0.0510379,   -61.97,   0.373822,   178.12,   0.355174,     3.68,          0,     0.00,  0.0111177,   -64.41,  0.0510453,   118.02,   0.373824,    -1.88,   0.355177,  -176.32,          0,     0.00,  0.0111175,   115.59
Line._CN_L26-RAMAL,   0.257442,    58.15,   0.259359,  -120.70,          0,     0.00,          0,     0.00, 0.00551216,   -51.63,   0.257446,  -121.85,   0.259363,    59.30,          0,     0.00,          0,     0.00, 0.00551284,   128.38
Line._ABCN_L27-SEC,    3.45655,   -61.97,   0.528969,   178.10,      1.581,    58.21,    2.46584,   138.25,   0.100991,   -28.29,    3.45657,   118.03,   0.528981,    -1.90,    1.58101,  -121.79,    2.46585,   -41.75,   0.100991,   151.71
Line._AN_L28-RAMAL,    1.77379,   -61.97,    1.76447,   118.00,          0,     0.00,          0,     0.00, 0.00934958,   -58.12,     1.7738,   118.03,    1.76447,   -62.00,          0,     0.00,          0,     0.00, 0.00934997,   121.88
Line._CN_L29-RAMAL,   0.612987,    58.15,   0.614328,  -121.37,          0,     0.00,          0,     0.00, 0.00532619,   -46.18,   0.612991,  -121.85,   0.614331,    58.63,          0,     0.00,          0,     0.00, 0.00532676,   133.82
Line._AN_L30-RAMAL,    1.47477,   -61.98,     1.4718,   118.19,          0,     0.00,          0,     0.00, 0.00529397,  -117.80,    1.47477,   118.02,     1.4718,   -61.81,          0,     0.00,          0,     0.00, 0.00529477,    62.20
Line._CN_L31-RAMAL,    1.78122,    58.22,    1.72988,  -122.00,          0,     0.00,          0,     0.00,  0.0518014,    65.75,    1.78122,  -121.78,    1.72988,    58.00,          0,     0.00,          0,     0.00,  0.0518022,  -114.25
Line._CN_L32-RAMAL,    2.18174,    58.23,    2.12941,  -121.96,          0,     0.00,          0,     0.00,  0.0527895,    65.69,    2.18175,  -121.77,    2.12942,    58.04,          0,     0.00,          0,     0.00,  0.0527902,  -114.32
Line._AN_L33-RAMAL,    1.21957,   -62.07,    1.24399,   116.34,          0,     0.00,          0,     0.00,  0.0419841,    62.70,    1.21957,   117.93,    1.24399,   -63.66,          0,     0.00,          0,     0.00,  0.0419829,  -117.30
Line._ACN_L34-RAMAL,     1.0883,   -62.08,    1.09184,    58.22,      1.067,   176.03,          0,     0.00,  0.0451664,    63.41,    1.08831,   117.92,    1.09185,  -121.78,    1.06701,    -3.97,          0,     0.00,   0.045166,  -116.59
Line._AN_L35-RAMAL,    1.59118,   -61.97,    1.56624,   117.55,          0,     0.00,          0,     0.00,  0.0281778,   -34.47,    1.59119,   118.03,    1.56625,   -62.45,          0,     0.00,          0,     0.00,  0.0281779,   145.52
Line._BN_L36-RAMAL, 1.13644E-005,   -60.11, 9.7658E-006,   119.87,          0,     0.00,          0,     0.00, 1.5986E-006,   -60.03, 5.70185E-013,  -103.40, 1.34747E-013,   176.98,          0,     0.00,          0,     0.00, 6.09048E-013,  -115.97
Line._CN_L37-RAMAL,    1.58101,    58.21,    1.57306,  -120.98,          0,     0.00,          0,     0.00,  0.0236601,   -11.75,    1.58102,  -121.79,    1.57306,    59.02,          0,     0.00,          0,     0.00,  0.0236618,   168.26
Line._BN_L38-RAMAL,   0.528987,   178.09,    0.54842,    -2.95,          0,     0.00,          0,     0.00,  0.0217807,   -29.28,   0.528991,    -1.91,   0.548423,   177.05,          0,     0.00,          0,     0.00,    0.02178,   150.72
Line._AN_L39-RAMAL,    1.86539,   -61.97,    1.83986,   117.62,          0,     0.00,          0,     0.00,  0.0287109,   -34.94,    1.86539,   118.03,    1.83986,   -62.38,          0,     0.00,          0,     0.00,   0.028711,   145.06
Reactor.GND_R01,  0.0101264,  -148.39,          0,     0.00,          0,     0.00,          0,     0.00,  0.0101264,  -148.39,  0.0101264,    31.61,          0,     0.00,          0,     0.00,          0,     0.00,  0.0101264,    31.61
Reactor.GND_R02, 0.00529477,  -117.80,          0,     0.00,          0,     0.00,          0,     0.00, 0.00529477,  -117.80, 0.00529477,    62.20,          0,     0.00,          0,     0.00,          0,     0.00, 0.00529477,    62.20
Reactor.GND_R03,    0.01944,   107.88,          0,     0.00,          0,     0.00,          0,     0.00,    0.01944,   107.88,    0.01944,   -72.12,          0,     0.00,          0,     0.00,          0,     0.00,    0.01944,   -72.12
Reactor.GND_R04,  0.0518022,    65.75,          0,     0.00,          0,     0.00,          0,     0.00,  0.0518022,    65.75,  0.0518022,  -114.25,          0,     0.00,          0,     0.00,          0,     0.00,  0.0518022,  -114.25
Reactor.GND_R05,  0.0527902,    65.68,          0,     0.00,          0,     0.00,          0,     0.00,  0.0527902,    65.68,  0.0527902,  -114.32,          0,     0.00,          0,     0.00,          0,     0.00,  0.0527902,  -114.32
Reactor.GND_R06,  0.0419829,    62.70,          0,     0.00,          0,     0.00,          0,     0.00,  0.0419829,    62.70,  0.0419829,  -117.30,          0,     0.00,          0,     0.00,          0,     0.00,  0.0419829,  -117.30
Reactor.GND_R07, 0.00532676,   -46.18,          0,     0.00,          0,     0.00,          0,     0.00, 0.00532676,   -46.18, 0.00532676,   133.82,          0,     0.00,          0,     0.00,          0,     0.00, 0.00532676,   133.82
Reactor.GND_R08,  0.0259436,  -134.23,          0,     0.00,          0,     0.00,          0,     0.00,  0.0259436,  -134.23,  0.0259436,    45.77,          0,     0.00,          0,     0.00,          0,     0.00,  0.0259436,    45.77
Reactor.GND_R09,    0.02178,   -29.28,          0,     0.00,          0,     0.00,          0,     0.00,    0.02178,   -29.28,    0.02178,   150.72,          0,     0.00,          0,     0.00,          0,     0.00,    0.02178,   150.72
Reactor.GND_R10,  0.0236618,   -11.74,          0,     0.00,          0,     0.00,          0,     0.00,  0.0236618,   -11.74,  0.0236618,   168.26,          0,     0.00,          0,     0.00,          0,     0.00,  0.0236618,   168.26
Reactor.GND_R11, 0.00934997,   -58.12,          0,     0.00,          0,     0.00,          0,     0.00, 0.00934997,   -58.12, 0.00934997,   121.88,          0,     0.00,          0,     0.00,          0,     0.00, 0.00934997,   121.88
Reactor.GND_R12, 0.00555874,   -64.41,          0,     0.00,          0,     0.00,          0,     0.00, 0.00555874,   -64.41, 0.00555874,   115.59,          0,     0.00,          0,     0.00,          0,     0.00, 0.00555874,   115.59
Reactor.GND_R13, 0.00551284,   -51.62,          0,     0.00,          0,     0.00,          0,     0.00, 0.00551284,   -51.62, 0.00551284,   128.38,          0,     0.00,          0,     0.00,          0,     0.00, 0.00551284,   128.38
Reactor.GND_R14,  0.0281779,   -34.48,          0,     0.00,          0,     0.00,          0,     0.00,  0.0281779,   -34.48,  0.0281779,   145.52,          0,     0.00,          0,     0.00,          0,     0.00,  0.0281779,   145.52
Reactor.GND_R15,  0.0270273,  -122.75,          0,     0.00,          0,     0.00,          0,     0.00,  0.0270273,  -122.75,  0.0270273,    57.25,          0,     0.00,          0,     0.00,          0,     0.00,  0.0270273,    57.25
Reactor.GND_R16,  0.0272715,  -134.33,          0,     0.00,          0,     0.00,          0,     0.00,  0.0272715,  -134.33,  0.0272715,    45.67,          0,     0.00,          0,     0.00,          0,     0.00,  0.0272715,    45.67
Reactor.GND_R17,   0.028711,   -34.94,          0,     0.00,          0,     0.00,          0,     0.00,   0.028711,   -34.94,   0.028711,   145.06,          0,     0.00,          0,     0.00,          0,     0.00,   0.028711,   145.06
Reactor.GND_R18,  0.0253923,  -140.01,          0,     0.00,          0,     0.00,          0,     0.00,  0.0253923,  -140.01,  0.0253923,    39.99,          0,     0.00,          0,     0.00,          0,     0.00,  0.0253923,    39.99
Reactor.GND_R19,  0.0222521,    99.55,          0,     0.00,          0,     0.00,          0,     0.00,  0.0222521,    99.55,  0.0222521,   -80.45,          0,     0.00,          0,     0.00,          0,     0.00,  0.0222521,   -80.45
Reactor.GND_R20,   0.022907,  -140.37,          0,     0.00,          0,     0.00,          0,     0.00,   0.022907,  -140.37,   0.022907,    39.63,          0,     0.00,          0,     0.00,          0,     0.00,   0.022907,    39.63
Reactor.GND_R21,   0.045166,    63.41,          0,     0.00,          0,     0.00,          0,     0.00,   0.045166,    63.41,   0.045166,  -116.59,          0,     0.00,          0,     0.00,          0,     0.00,   0.045166,  -116.59
Reactor.GND_R22,  0.0199555,  -140.95,          0,     0.00,          0,     0.00,          0,     0.00,  0.0199555,  -140.95,  0.0199555,    39.05,          0,     0.00,          0,     0.00,          0,     0.00,  0.0199555,    39.05
Reactor.GND_R23,  0.0162729,  -152.22,          0,     0.00,          0,     0.00,          0,     0.00,  0.0162729,  -152.22,  0.0162729,    27.78,          0,     0.00,          0,     0.00,          0,     0.00,  0.0162729,    27.78
Reactor.GND_R24, 0.00555874,   -64.41,          0,     0.00,          0,     0.00,          0,     0.00, 0.00555874,   -64.41, 0.00555874,   115.59,          0,     0.00,          0,     0.00,          0,     0.00, 0.00555874,   115.59
Reactor.GND_R25,  0.0272715,  -134.33,          0,     0.00,          0,     0.00,          0,     0.00,  0.0272715,  -134.33,  0.0272715,    45.67,          0,     0.00,          0,     0.00,          0,     0.00,  0.0272715,    45.67
Reactor.GND_R26,  0.0222521,    99.55,          0,     0.00,          0,     0.00,          0,     0.00,  0.0222521,    99.55,  0.0222521,   -80.45,          0,     0.00,          0,     0.00,          0,     0.00,  0.0222521,   -80.45
Reactor.GND_R27,  0.0175362,  -134.59,          0,     0.00,          0,     0.00,          0,     0.00,  0.0175362,  -134.59,  0.0175362,    45.41,          0,     0.00,          0,     0.00,          0,     0.00,  0.0175362,    45.41
Reactor.GND_R28,  0.0156228,  -151.13,          0,     0.00,          0,     0.00,          0,     0.00,  0.0156228,  -151.13,  0.0156228,    28.87,          0,     0.00,          0,     0.00,          0,     0.00,  0.0156228,    28.87
Transformer.T1,   0.293662,   -39.49,   0.276354,  -145.79,   0.342141,    89.68,          0,     0.00, 1.28095E-014,    33.69,    19.3768,   118.03,    12.1316,    -1.86,    17.5996,  -121.84,    6.50961,   -15.68, 6.03328E-007,   124.57
Load.C01,    1.47462,   -61.98,    1.47462,   118.02,          0,     0.00,          0,     0.00,          0,     0.00,          0,     0.00,          0,     0.00,          0,     0.00,          0,     0.00,          0,     0.00
Load.C02,    1.65009,   178.19,    1.65009,    -1.81,          0,     0.00,          0,     0.00,          0,     0.00,          0,     0.00,          0,     0.00,          0,     0.00,          0,     0.00,          0,     0.00
Load.C03,    1.78084,    58.22,    1.78084,  -121.78,          0,     0.00,          0,     0.00,          0,     0.00,          0,     0.00,          0,     0.00,          0,     0.00,          0,     0.00,          0,     0.00
Load.C04,     2.1813,    58.23,     2.1813,  -121.77,          0,     0.00,          0,     0.00,          0,     0.00,          0,     0.00,          0,     0.00,          0,     0.00,          0,     0.00,          0,     0.00
Load.C05,    1.21944,   -62.07,    1.21944,   117.93,          0,     0.00,          0,     0.00,          0,     0.00,          0,     0.00,          0,     0.00,          0,     0.00,          0,     0.00,          0,     0.00
Load.C06,   0.612906,    58.15,   0.612906,  -121.85,          0,     0.00,          0,     0.00,          0,     0.00,          0,     0.00,          0,     0.00,          0,     0.00,          0,     0.00,          0,     0.00
Load.C07,    1.11857,   -61.95,    1.11857,   118.05,          0,     0.00,          0,     0.00,          0,     0.00,          0,     0.00,          0,     0.00,          0,     0.00,          0,     0.00,          0,     0.00
Load.C08,   0.528998,   178.09,   0.528998,    -1.91,          0,     0.00,          0,     0.00,          0,     0.00,          0,     0.00,          0,     0.00,          0,     0.00,          0,     0.00,          0,     0.00
Load.C09,    1.58082,    58.21,    1.58082,  -121.79,          0,     0.00,          0,     0.00,          0,     0.00,          0,     0.00,          0,     0.00,          0,     0.00,          0,     0.00,          0,     0.00
Load.C10,     1.7736,   -61.97,     1.7736,   118.03,          0,     0.00,          0,     0.00,          0,     0.00,          0,     0.00,          0,     0.00,          0,     0.00,          0,     0.00,          0,     0.00
Load.C11,   0.373826,   178.12,   0.373826,    -1.88,          0,     0.00,          0,     0.00,          0,     0.00,          0,     0.00,          0,     0.00,          0,     0.00,          0,     0.00,          0,     0.00
Load.C12,   0.257411,    58.15,   0.257411,  -121.85,          0,     0.00,          0,     0.00,          0,     0.00,          0,     0.00,          0,     0.00,          0,     0.00,          0,     0.00,          0,     0.00
Load.C13,    1.59097,   -61.97,    1.59097,   118.03,          0,     0.00,          0,     0.00,          0,     0.00,          0,     0.00,          0,     0.00,          0,     0.00,          0,     0.00,          0,     0.00
Load.C14,    1.47391,   -61.94,    1.47391,   118.06,          0,     0.00,          0,     0.00,          0,     0.00,          0,     0.00,          0,     0.00,          0,     0.00,          0,     0.00,          0,     0.00
Load.C15,   0.982767,   178.10,   0.982767,    -1.90,          0,     0.00,          0,     0.00,          0,     0.00,          0,     0.00,          0,     0.00,          0,     0.00,          0,     0.00,          0,     0.00
Load.C16,    1.86513,   -61.97,    1.86513,   118.03,          0,     0.00,          0,     0.00,          0,     0.00,          0,     0.00,          0,     0.00,          0,     0.00,          0,     0.00,          0,     0.00
Load.C17,    0.29997,   178.11,    0.30041,    58.08,    0.30006,   -61.98,          0,     0.00,          0,     0.00,          0,     0.00,          0,     0.00,          0,     0.00,          0,     0.00,          0,     0.00
Load.C18,    2.07455,    58.15,    2.07455,  -121.85,          0,     0.00,          0,     0.00,          0,     0.00,          0,     0.00,          0,     0.00,          0,     0.00,          0,     0.00,          0,     0.00
Load.C19,    6.31141,   -61.93,    6.29242,   178.13,    6.30424,    58.10,  0.0162854,   134.52,          0,     0.00,          0,     0.00,          0,     0.00,          0,     0.00,          0,     0.00,          0,     0.00
Load.C20,     1.0882,   -62.08,    1.09163,    58.22,    1.08503,   178.23,          0,     0.00,          0,     0.00,          0,     0.00,          0,     0.00,          0,     0.00,          0,     0.00,          0,     0.00
Load.C21,   0.164367,   -61.95,   0.163811,   178.12,   0.164187,    58.10, 0.000446494,   137.94,          0,     0.00,          0,     0.00,          0,     0.00,          0,     0.00,          0,     0.00,          0,     0.00
Load.C22,   0.370659,   178.12,   0.370659,    -1.88,          0,     0.00,          0,     0.00,          0,     0.00,          0,     0.00,          0,     0.00,          0,     0.00,          0,     0.00,          0,     0.00
Load.C23,  0.0510396,   -61.98,  0.0510396,   118.02,          0,     0.00,          0,     0.00,          0,     0.00,          0,     0.00,          0,     0.00,          0,     0.00,          0,     0.00,          0,     0.00
Load.C24, 0.00458903,    58.08, 0.00458903,  -121.92,          0,     0.00,          0,     0.00,          0,     0.00,          0,     0.00,          0,     0.00,          0,     0.00,          0,     0.00,          0,     0.00
Load.C25,    1.46695,   178.19,    1.46695,    -1.81,          0,     0.00,          0,     0.00,          0,     0.00,          0,     0.00,          0,     0.00,          0,     0.00,          0,     0.00,          0,     0.00
Load.C26,    1.24386,   -61.95,    1.24237,    58.11,    1.24197,   178.02,          0,     0.00,          0,     0.00,          0,     0.00,          0,     0.00,          0,     0.00,          0,     0.00,          0,     0.00
Load.C27, 0.00229065,   178.12, 0.00229847,    58.10, 0.00229379,   -62.06,          0,     0.00,          0,     0.00,          0,     0.00,          0,     0.00,          0,     0.00,          0,     0.00,          0,     0.00
PVSystem.PV_0,          0,     0.00,          0,     0.00,          0,     0.00,          0,     0.00,          0,     0.00,          0,     0.00,          0,     0.00,          0,     0.00,          0,     0.00,          0,     0.00
PVSystem.PV_1,          0,     0.00,          0,     0.00,          0,     0.00,          0,     0.00,          0,     0.00,          0,     0.00,          0,     0.00,          0,     0.00,          0,     0.00,          0,     0.00
